1
    SWAT Mar 4 2014    VER 2012/Rev 622                                                                  0/ 0/   0      0: 0: 0

    General Input/Output section (file.cio):                                        
    10/6/2016 12:00:00 AM ARCGIS-SWAT interface AV                                  
                                                                                    
         Number of years in run:   30
         Area of watershed:   106124.000 km2
         Random number generator cycles: 0, use default numbers

         Initial random number seed: wet/dry day prob        748932582
         Initial random number seed: radiation              1948832765
         Initial random number seed: precipitation           857034417
         Initial random number seed: 0.5 hr rainfall          67377721
         Initial random number seed: wind speed              366304404
         Initial random number seed: irrigation             1094585182
         Initial random number seed: relative humidity      1767585417
         Initial random number seed: max temperature         608439319
         Initial random number seed: min temperature         592757081

         Precipitation data used in run:
          Multiple gages read for watershed
             Daily rainfall data used

         Temperature data used in run:
          Multiple gages read for watershed

         PET method used: Penman-Monteith

         Rainfall/Runoff/Routing Option:
          Daily rainfall data
          Runoff estimated with curve number method
          Daily stream routing
           Variable Storage routing method
           Channel dimensions remain constant
           Subbasin algae/CBOD loadings not modeled
           In-stream nutrient transformations modeled using QUAL2E equations

         Subbasin Input Summary:
          Sub Latitude  Elev(m) #HRUs Ponds Elevbnds Wetlnd
            1    36.71   781.64    32                   
            2    36.71   678.08    52                   
            3    36.71   136.58    80                   
            4    36.71   471.80    76                   
            5    36.71   473.43    44                   
            6    36.71   544.07    88                   
            7    36.71   134.20    52                   
            8    36.71   941.69    52                   
            9    36.71   731.07    36                   
           10    36.71   518.13    84                   
           11    36.71   408.07    68                   
           12    36.71   586.65    56                   
           13    36.71   696.61    36                   
           14    36.71   149.94    88                   
           15    36.71   351.18    72                   
           16    36.71   340.91   100                   
           17    36.71   282.12    55                   
           18    36.71   510.37    60                   
           19    36.71   333.76    92                   
           20    36.71   277.71    88                   
           21    36.71   488.21    68                   
           22    36.71   314.82    84                   
           23    36.71   980.66    79                   
           24    36.71   431.53    88                   
           25    36.71   178.04    52                   
           26    36.71   416.43    84                   
           27    36.71   792.12    64                   
           28    36.71   349.04    52                   
           29    36.71   221.25    48                   
           30    36.71  1042.15    60                   
           31    36.71   904.58    44                   
           32    36.71   687.37    64                   
           33    36.81   235.85    68                   
           34    36.81   310.77    72                   
           35    36.81   261.36    80                   
           36    36.81   163.81   108                   
           37    36.81   364.18    80                   
           38    36.81   238.58    72                   
           39    36.81   696.39    68                   
           40    36.81   270.88    60                   
           41    36.81   357.54   108                   
           42    36.81   327.49    88                   
           43    36.81   308.38   104                   
           44    36.81   628.33    56                   
           45    36.81   417.77    88                   
           46    36.81   427.47    52                   
           47    36.81   371.37    68                   
           48    36.81   261.10    84                   
           49    36.81   142.44   112                   
           50    36.81   183.89    96                   
           51    36.81   221.14   124                   
           52    36.81   247.98    64                   
           53    36.81   244.93   108                   
           54    36.81   216.12    72                   
           55    36.81   326.22    96                   

         HRU Input Summary Table 1:
          Sub   HRU   Area(ha) Slope SlpLgth(m) Ovrlnd_N CondII_CN TimeConc(hr) ESCO EPCO
            1      1    1067.27 0.015     121.95    0.300     59.00        1.799 0.95 1.00
            1      2     435.71 0.006     121.95    0.300     59.00        2.282 0.95 1.00
            1      3    5823.79 0.036      91.46    0.300     59.00        1.541 0.95 1.00
            1      4   42126.67 0.137      24.39    0.300     59.00        2.828 0.95 1.00
            1      5      10.66 0.007     121.95    0.100     77.00        1.107 0.95 1.00
            1      6      38.83 0.015     121.95    0.100     77.00        0.884 0.95 1.00
            1      7     229.01 0.037      91.46    0.100     77.00        0.590 0.95 1.00
            1      8   38429.90 0.379       9.15    0.100     77.00        2.372 0.95 1.00
            1      9      89.48 0.015     121.95    0.100     66.00        0.890 0.95 1.00
            1     10      50.26 0.006     121.95    0.100     66.00        1.164 0.95 1.00
            1     11     554.18 0.037      91.46    0.100     66.00        0.620 0.95 1.00
            1     12   43540.48 0.342       9.15    0.100     66.00        2.640 0.95 1.00
            1     13     285.95 0.016     121.95    0.100     66.00        0.894 0.95 1.00
            1     14    1452.36 0.036      91.46    0.100     66.00        0.700 0.95 1.00
            1     15   28009.63 0.227      15.24    0.100     66.00        1.857 0.95 1.00
            1     16     151.93 0.005     121.95    0.100     66.00        1.240 0.95 1.00
            1     17     349.95 0.015     121.95    0.100     97.22        0.917 0.95 1.00
            1     18     147.18 0.006     121.95    0.100     97.22        1.175 0.95 1.00
            1     19    1695.05 0.036      91.46    0.100     97.22        0.719 0.95 1.00
            1     20    8021.45 0.134      24.39    0.100     97.22        0.758 0.95 1.00
            1     21      62.65 0.015     121.95    0.150     69.00        1.129 0.95 1.00
            1     22      34.81 0.006     121.95    0.150     69.00        1.481 0.95 1.00
            1     23    2347.40 0.160      24.39    0.150     69.00        0.409 0.95 1.00
            1     24     255.54 0.036      91.46    0.150     69.00        0.754 0.95 1.00
            1     25      46.85 0.037      91.46    0.150     79.00        0.726 0.95 1.00
            1     26       4.05 0.006     121.95    0.150     79.00        1.476 0.95 1.00
            1     27       7.69 0.015     121.95    0.150     79.00        1.122 0.95 1.00
            1     28     525.28 0.161      18.29    0.150     79.00        0.230 0.95 1.00
            1     29       6.09 0.007     121.95    0.150     79.00        1.410 0.95 1.00
            1     30     602.30 0.158      24.39    0.150     79.00        0.271 0.95 1.00
            1     31     105.72 0.035      91.46    0.150     79.00        0.745 0.95 1.00
            1     32      19.44 0.015     121.95    0.150     79.00        1.124 0.95 1.00
            2     33     367.90 0.015     121.95    0.300     59.00        1.783 0.95 1.00
            2     34     167.43 0.006     121.95    0.300     59.00        2.279 0.95 1.00
            2     35    2074.81 0.036      91.46    0.300     59.00        1.482 0.95 1.00
            2     36   30223.06 0.193      18.29    0.300     59.00        4.242 0.95 1.00
            2     37    5628.31 0.221      15.24    0.300     59.00        1.134 0.95 1.00
            2     38     497.33 0.035      91.46    0.300     59.00        1.219 0.95 1.00
            2     39     122.04 0.015     121.95    0.300     59.00        1.731 0.95 1.00
            2     40      75.69 0.005     121.95    0.300     59.00        2.384 0.95 1.00
            2     41      63.00 0.015     121.95    0.100     66.00        0.897 0.95 1.00
            2     42   46559.36 0.381       9.15    0.100     66.00        5.892 0.95 1.00
            2     43      30.47 0.006     121.95    0.100     66.00        1.167 0.95 1.00
            2     44     363.63 0.037      91.46    0.100     66.00        0.647 0.95 1.00
            2     45      32.92 0.006     121.95    0.100     66.00        1.167 0.95 1.00
            2     46     524.40 0.037      91.46    0.100     66.00        0.679 0.95 1.00
            2     47      83.75 0.016     121.95    0.100     66.00        0.885 0.95 1.00
            2     48   31611.41 0.296       9.15    0.100     66.00        4.225 0.95 1.00
            2     49     285.84 0.036      91.46    0.100     66.00        0.636 0.95 1.00
            2     50   34948.43 0.363       9.15    0.100     66.00        4.601 0.95 1.00
            2     51      43.43 0.015     121.95    0.100     66.00        0.892 0.95 1.00
            2     52      20.36 0.005     121.95    0.100     66.00        1.229 0.95 1.00
            2     53   19773.62 0.355       9.15    0.100     66.00        2.824 0.95 1.00
            2     54     329.54 0.036      91.46    0.100     66.00        0.645 0.95 1.00
            2     55      71.95 0.015     121.95    0.100     66.00        0.899 0.95 1.00
            2     56      60.66 0.004     121.95    0.100     66.00        1.324 0.95 1.00
            2     57      15.44 0.005     121.95    0.100     97.22        1.227 0.95 1.00
            2     58    1128.31 0.236      15.24    0.100     97.22        0.335 0.95 1.00
            2     59      25.73 0.015     121.95    0.100     97.22        0.887 0.95 1.00
            2     60     103.91 0.036      91.46    0.100     97.22        0.597 0.95 1.00
            2     61      74.38 0.016     121.95    0.100     97.22        0.883 0.95 1.00
            2     62      32.55 0.006     121.95    0.100     97.22        1.167 0.95 1.00
            2     63    3933.89 0.196      18.29    0.100     97.22        0.800 0.95 1.00
            2     64     394.08 0.036      91.46    0.100     97.22        0.658 0.95 1.00
            2     65     230.91 0.036      91.46    0.100     97.48        0.625 0.95 1.00
            2     66      44.00 0.016     121.95    0.100     97.48        0.875 0.95 1.00
            2     67      19.42 0.006     121.95    0.100     97.48        1.163 0.95 1.00
            2     68    1471.11 0.195      18.29    0.100     97.48        0.414 0.95 1.00
            2     69       8.97 0.005     121.95    0.150     69.00        1.562 0.95 1.00
            2     70     947.60 0.206      15.24    0.150     69.00        0.339 0.95 1.00
            2     71      15.82 0.015     121.95    0.150     69.00        1.126 0.95 1.00
            2     72      78.09 0.036      91.46    0.150     69.00        0.747 0.95 1.00
            2     73       5.10 0.006     121.95    0.150     79.00        1.478 0.95 1.00
            2     74      12.58 0.016     121.95    0.150     79.00        1.104 0.95 1.00
            2     75    1080.11 0.184      18.29    0.150     79.00        0.385 0.95 1.00
            2     76      78.35 0.037      91.46    0.150     79.00        0.741 0.95 1.00
            2     77      14.33 0.006     121.95    0.150     69.00        1.481 0.95 1.00
            2     78      33.00 0.016     121.95    0.150     69.00        1.110 0.95 1.00
            2     79     193.31 0.036      91.46    0.150     69.00        0.773 0.95 1.00
            2     80    3383.22 0.197      18.29    0.150     69.00        0.753 0.95 1.00
            2     81     123.17 0.036      91.46    0.150     79.00        0.758 0.95 1.00
            2     82    1609.71 0.202      15.24    0.150     79.00        0.454 0.95 1.00
            2     83      24.41 0.015     121.95    0.150     79.00        1.129 0.95 1.00
            2     84      13.69 0.006     121.95    0.150     79.00        1.480 0.95 1.00
            3     85     950.17 0.014     121.95    0.140     77.00        1.261 0.95 1.00
            3     86    2129.64 0.005     121.95    0.140     77.00        1.826 0.95 1.00
            3     87     639.51 0.030      91.46    0.140     77.00        0.851 0.95 1.00
            3     88     171.78 0.087      60.98    0.140     77.00        0.455 0.95 1.00
            3     89    2361.53 0.006     121.95    0.140     77.00        1.778 0.95 1.00
            3     90    3045.69 0.014     121.95    0.140     77.00        1.551 0.95 1.00
            3     91    2758.65 0.031      91.46    0.140     77.00        1.143 0.95 1.00
            3     92     430.25 0.066      60.98    0.140     77.00        0.537 0.95 1.00
            3     93     772.33 0.015     121.95    0.140     77.00        1.212 0.95 1.00
            3     94     430.88 0.006     121.95    0.140     77.00        1.498 0.95 1.00
            3     95     942.14 0.077      60.98    0.140     77.00        0.597 0.95 1.00
            3     96    1695.56 0.033      91.46    0.140     77.00        0.985 0.95 1.00
            3     97     840.15 0.030      91.46    0.140     78.00        0.882 0.95 1.00
            3     98    1255.31 0.014     121.95    0.140     78.00        1.306 0.95 1.00
            3     99    3651.53 0.005     121.95    0.140     78.00        2.026 0.95 1.00
            3    100     262.59 0.087      60.98    0.140     78.00        0.472 0.95 1.00
            3    101    3300.50 0.014     121.95    0.140     78.00        1.584 0.95 1.00
            3    102    2718.79 0.030      91.46    0.140     78.00        1.145 0.95 1.00
            3    103    2746.87 0.006     121.95    0.140     78.00        1.829 0.95 1.00
            3    104     391.74 0.065      60.98    0.140     78.00        0.532 0.95 1.00
            3    105    1763.45 0.034      91.46    0.140     78.00        0.989 0.95 1.00
            3    106    1113.38 0.078      60.98    0.140     78.00        0.620 0.95 1.00
            3    107     460.52 0.007     121.95    0.140     78.00        1.439 0.95 1.00
            3    108     826.32 0.015     121.95    0.140     78.00        1.220 0.95 1.00
            3    109    1610.71 0.006     121.95    0.140     73.00        1.675 0.95 1.00
            3    110     224.62 0.067      60.98    0.140     73.00        0.499 0.95 1.00
            3    111    1888.40 0.014     121.95    0.140     73.00        1.396 0.95 1.00
            3    112    1631.46 0.030      91.46    0.140     73.00        0.997 0.95 1.00
            3    113     319.54 0.073      60.98    0.140     73.00        0.504 0.95 1.00
            3    114     210.70 0.006     121.95    0.140     73.00        1.460 0.95 1.00
            3    115     736.80 0.033      91.46    0.140     73.00        0.845 0.95 1.00
            3    116     376.38 0.015     121.95    0.140     73.00        1.148 0.95 1.00
            3    117     622.21 0.007     121.95    0.300     59.00        2.248 0.95 1.00
            3    118     580.25 0.071      60.98    0.300     59.00        0.809 0.95 1.00
            3    119    1391.04 0.033      91.46    0.300     59.00        1.357 0.95 1.00
            3    120     905.87 0.015     121.95    0.300     59.00        1.856 0.95 1.00
            3    121    2182.59 0.035      91.46    0.300     59.00        1.447 0.95 1.00
            3    122    2169.68 0.083      60.98    0.300     59.00        1.007 0.95 1.00
            3    123     344.86 0.006     121.95    0.300     59.00        2.304 0.95 1.00
            3    124     744.45 0.015     121.95    0.300     59.00        1.831 0.95 1.00
            3    125    2355.41 0.014     121.95    0.100     66.00        1.259 0.95 1.00
            3    126    2264.73 0.032      91.46    0.100     66.00        0.938 0.95 1.00
            3    127    5701.52 0.004     121.95    0.100     66.00        2.090 0.95 1.00
            3    128    2238.51 0.103      60.98    0.100     66.00        0.671 0.95 1.00
            3    129    4584.89 0.082      60.98    0.100     66.00        0.996 0.95 1.00
            3    130    2470.08 0.006     121.95    0.100     66.00        1.534 0.95 1.00
            3    131    3607.03 0.015     121.95    0.100     66.00        1.404 0.95 1.00
            3    132    5761.66 0.033      91.46    0.100     66.00        1.374 0.95 1.00
            3    133    1265.64 0.006     121.95    0.100     66.00        1.367 0.95 1.00
            3    134   11339.74 0.036      91.46    0.100     66.00        1.998 0.95 1.00
            3    135   24766.65 0.094      60.98    0.100     66.00        3.166 0.95 1.00
            3    136    2770.81 0.015     121.95    0.100     66.00        1.296 0.95 1.00
            3    137    1405.13 0.006     121.95    0.100     97.22        1.387 0.95 1.00
            3    138    1988.20 0.015     121.95    0.100     97.22        1.191 0.95 1.00
            3    139    2265.78 0.032      91.46    0.100     97.22        0.939 0.95 1.00
            3    140     763.25 0.072      60.98    0.100     97.22        0.497 0.95 1.00
            3    141    2268.29 0.081      60.98    0.100     97.22        0.699 0.95 1.00
            3    142    2351.62 0.035      91.46    0.100     97.22        0.934 0.95 1.00
            3    143     443.71 0.007     121.95    0.100     97.22        1.189 0.95 1.00
            3    144     919.05 0.015     121.95    0.100     97.22        1.038 0.95 1.00
            3    145    2167.61 0.006     121.95    0.150     69.00        1.812 0.95 1.00
            3    146    5222.52 0.033      91.46    0.150     69.00        1.470 0.95 1.00
            3    147    2464.07 0.074      60.98    0.150     69.00        0.834 0.95 1.00
            3    148    3302.09 0.015     121.95    0.150     69.00        1.607 0.95 1.00
            3    149    2329.37 0.015     121.95    0.150     69.00        1.479 0.95 1.00
            3    150    7692.22 0.035      91.46    0.150     69.00        1.750 0.95 1.00
            3    151    1054.32 0.007     121.95    0.150     69.00        1.588 0.95 1.00
            3    152    9473.79 0.084      60.98    0.150     69.00        1.663 0.95 1.00
            3    153     200.42 0.029      91.46    0.050     66.00        0.442 0.95 1.00
            3    154      39.27 0.087      60.98    0.050     66.00        0.236 0.95 1.00
            3    155    2957.81 0.003     121.95    0.050     66.00        1.381 0.95 1.00
            3    156     413.14 0.014     121.95    0.050     66.00        0.671 0.95 1.00
            3    157     384.85 0.091      60.98    0.050     66.00        0.297 0.95 1.00
            3    158     418.18 0.033      91.46    0.050     66.00        0.465 0.95 1.00
            3    159     334.97 0.014     121.95    0.050     66.00        0.658 0.95 1.00
            3    160    1075.11 0.004     121.95    0.050     66.00        1.044 0.95 1.00
            3    161     212.06 0.032      91.46    0.050     77.00        0.433 0.95 1.00
            3    162     209.66 0.014     121.95    0.050     77.00        0.636 0.95 1.00
            3    163     172.79 0.089      60.98    0.050     77.00        0.261 0.95 1.00
            3    164     837.03 0.004     121.95    0.050     77.00        1.008 0.95 1.00
            4    165    1079.84 0.128      24.39    0.300     59.00        0.471 0.95 1.00
            4    166      34.69 0.015     121.95    0.300     59.00        1.706 0.95 1.00
            4    167     211.05 0.037      91.46    0.300     59.00        1.122 0.95 1.00
            4    168      10.47 0.006     121.95    0.300     59.00        2.239 0.95 1.00
            4    169      65.36 0.005     121.95    0.300     72.00        2.374 0.95 1.00
            4    170     870.25 0.158      24.39    0.300     72.00        0.428 0.95 1.00
            4    171     178.79 0.034      91.46    0.300     72.00        1.146 0.95 1.00
            4    172      79.23 0.015     121.95    0.300     72.00        1.712 0.95 1.00
            4    173       3.29 0.006     121.95    0.300     59.00        2.238 0.95 1.00
            4    174       5.84 0.015     121.95    0.300     59.00        1.701 0.95 1.00
            4    175      32.25 0.038      91.46    0.300     59.00        1.088 0.95 1.00
            4    176     662.24 0.188      18.29    0.300     59.00        0.340 0.95 1.00
            4    177     132.27 0.036      91.46    0.100     77.00        0.590 0.95 1.00
            4    178      26.19 0.015     121.95    0.100     77.00        0.884 0.95 1.00
            4    179      24.21 0.004     121.95    0.100     77.00        1.311 0.95 1.00
            4    180    2439.36 0.208      15.24    0.100     77.00        0.382 0.95 1.00
            4    181       9.79 0.007     121.95    0.100     66.00        1.107 0.95 1.00
            4    182     186.37 0.037      91.46    0.100     66.00        0.592 0.95 1.00
            4    183      30.82 0.016     121.95    0.100     66.00        0.868 0.95 1.00
            4    184    3249.00 0.202      15.24    0.100     66.00        0.459 0.95 1.00
            4    185      84.79 0.015     121.95    0.100     77.00        0.893 0.95 1.00
            4    186    7274.44 0.246      15.24    0.100     77.00        0.805 0.95 1.00
            4    187     348.14 0.036      91.46    0.100     77.00        0.617 0.95 1.00
            4    188      56.88 0.005     121.95    0.100     77.00        1.232 0.95 1.00
            4    189      31.75 0.038      91.46    0.100     66.00        0.566 0.95 1.00
            4    190       4.50 0.015     121.95    0.100     66.00        0.880 0.95 1.00
            4    191       2.11 0.008     121.95    0.100     66.00        1.062 0.95 1.00
            4    192    2601.00 0.345       9.15    0.100     66.00        0.355 0.95 1.00
            4    193      97.28 0.037      91.46    0.100     97.48        0.580 0.95 1.00
            4    194      17.88 0.015     121.95    0.100     97.48        0.883 0.95 1.00
            4    195      11.49 0.004     121.95    0.100     97.48        1.309 0.95 1.00
            4    196     881.05 0.157      24.39    0.100     97.48        0.275 0.95 1.00
            4    197    2134.60 0.148      24.39    0.100     97.22        0.406 0.95 1.00
            4    198      17.76 0.007     121.95    0.100     97.22        1.108 0.95 1.00
            4    199      49.92 0.015     121.95    0.100     97.22        0.888 0.95 1.00
            4    200     298.21 0.036      91.46    0.100     97.22        0.611 0.95 1.00
            4    201     130.01 0.005     121.95    0.100     97.48        1.243 0.95 1.00
            4    202     369.02 0.035      91.46    0.100     97.48        0.625 0.95 1.00
            4    203    1984.74 0.171      18.29    0.100     97.48        0.359 0.95 1.00
            4    204     145.56 0.015     121.95    0.100     97.48        0.902 0.95 1.00
            4    205      51.87 0.015     121.95    0.100     63.29        0.888 0.95 1.00
            4    206      14.44 0.007     121.95    0.100     63.29        1.108 0.95 1.00
            4    207     231.29 0.036      91.46    0.100     63.29        0.603 0.95 1.00
            4    208    1225.89 0.133      24.39    0.100     63.29        0.320 0.95 1.00
            4    209      86.65 0.015     121.95    0.100     74.86        0.893 0.95 1.00
            4    210     198.71 0.034      91.46    0.100     74.86        0.608 0.95 1.00
            4    211     733.96 0.155      24.39    0.100     74.86        0.260 0.95 1.00
            4    212      83.41 0.005     121.95    0.100     74.86        1.236 0.95 1.00
            4    213     321.29 0.123      24.39    0.100     63.29        0.223 0.95 1.00
            4    214     256.59 0.033      91.46    0.100     63.29        0.621 0.95 1.00
            4    215      88.27 0.006     121.95    0.100     63.29        1.172 0.95 1.00
            4    216     140.49 0.015     121.95    0.100     63.29        0.901 0.95 1.00
            4    217     128.64 0.111      60.98    0.100     73.82        0.338 0.95 1.00
            4    218      45.17 0.035      91.46    0.100     73.82        0.582 0.95 1.00
            4    219      15.02 0.015     121.95    0.100     73.82        0.882 0.95 1.00
            4    220       6.42 0.007     121.95    0.100     73.82        1.106 0.95 1.00
            4    221     187.85 0.140      24.39    0.100     81.88        0.200 0.95 1.00
            4    222      72.49 0.005     121.95    0.100     81.88        1.234 0.95 1.00
            4    223      46.80 0.015     121.95    0.100     81.88        0.887 0.95 1.00
            4    224      84.46 0.033      91.46    0.100     81.88        0.598 0.95 1.00
            4    225      94.80 0.106      60.98    0.100     73.82        0.338 0.95 1.00
            4    226     120.48 0.032      91.46    0.100     73.82        0.608 0.95 1.00
            4    227      79.45 0.015     121.95    0.100     73.82        0.892 0.95 1.00
            4    228      70.42 0.006     121.95    0.100     73.82        1.169 0.95 1.00
            4    229       5.51 0.005     121.95    0.150     79.00        1.560 0.95 1.00
            4    230     818.03 0.166      18.29    0.150     79.00        0.277 0.95 1.00
            4    231      81.73 0.037      91.46    0.150     79.00        0.733 0.95 1.00
            4    232      12.43 0.016     121.95    0.150     79.00        1.102 0.95 1.00
            4    233      27.32 0.006     121.95    0.150     69.00        1.481 0.95 1.00
            4    234      74.93 0.016     121.95    0.150     69.00        1.112 0.95 1.00
            4    235    3004.28 0.135      24.39    0.150     69.00        0.542 0.95 1.00
            4    236     452.40 0.037      91.46    0.150     69.00        0.781 0.95 1.00
            4    237     112.92 0.015     121.95    0.150     79.00        1.139 0.95 1.00
            4    238    2605.47 0.173      18.29    0.150     79.00        0.456 0.95 1.00
            4    239     354.02 0.035      91.46    0.150     79.00        0.781 0.95 1.00
            4    240      58.87 0.006     121.95    0.150     79.00        1.486 0.95 1.00
            5    241       3.56 0.006     121.95    0.300     72.00        2.238 0.95 1.00
            5    242     450.00 0.132      24.39    0.300     72.00        0.420 0.95 1.00
            5    243      61.38 0.037      91.46    0.300     72.00        1.105 0.95 1.00
            5    244       9.32 0.016     121.95    0.300     72.00        1.669 0.95 1.00
            5    245      17.18 0.006     121.95    0.300     59.00        2.241 0.95 1.00
            5    246     197.66 0.036      91.46    0.300     59.00        1.140 0.95 1.00
            5    247     789.91 0.114      60.98    0.300     59.00        0.746 0.95 1.00
            5    248      42.11 0.015     121.95    0.300     59.00        1.710 0.95 1.00
            5    249      17.69 0.015     121.95    0.100     77.00        0.884 0.95 1.00
            5    250      19.31 0.003     121.95    0.100     77.00        1.430 0.95 1.00
            5    251      90.71 0.036      91.46    0.100     77.00        0.589 0.95 1.00
            5    252    2216.75 0.220      15.24    0.100     77.00        0.448 0.95 1.00
            5    253      34.30 0.015     121.95    0.100     66.00        0.888 0.95 1.00
            5    254     166.33 0.036      91.46    0.100     66.00        0.603 0.95 1.00
            5    255      18.66 0.006     121.95    0.100     66.00        1.162 0.95 1.00
            5    256    2167.24 0.190      18.29    0.100     66.00        0.460 0.95 1.00
            5    257       1.29 0.005     121.95    0.100     77.00        1.223 0.95 1.00
            5    258     606.10 0.247      15.24    0.100     77.00        0.217 0.95 1.00
            5    259      13.27 0.038      91.46    0.100     77.00        0.563 0.95 1.00
            5    260       2.16 0.016     121.95    0.100     77.00        0.863 0.95 1.00
            5    261      10.41 0.006     121.95    0.100     97.48        1.160 0.95 1.00
            5    262      22.47 0.016     121.95    0.100     97.48        0.868 0.95 1.00
            5    263     134.70 0.036      91.46    0.100     97.48        0.598 0.95 1.00
            5    264    1130.86 0.152      24.39    0.100     97.48        0.353 0.95 1.00
            5    265    1521.59 0.133      24.39    0.100     97.22        0.415 0.95 1.00
            5    266      28.50 0.006     121.95    0.100     97.22        1.164 0.95 1.00
            5    267      58.31 0.015     121.95    0.100     97.22        0.893 0.95 1.00
            5    268     270.82 0.036      91.46    0.100     97.22        0.622 0.95 1.00
            5    269       1.95 0.006     121.95    0.100     74.86        1.158 0.95 1.00
            5    270       5.62 0.015     121.95    0.100     74.86        0.881 0.95 1.00
            5    271      32.31 0.037      91.46    0.100     74.86        0.572 0.95 1.00
            5    272     280.96 0.139      24.39    0.100     74.86        0.227 0.95 1.00
            5    273      15.34 0.006     121.95    0.100     63.29        1.161 0.95 1.00
            5    274     111.09 0.036      91.46    0.100     63.29        0.593 0.95 1.00
            5    275     456.67 0.121      24.39    0.100     63.29        0.263 0.95 1.00
            5    276      26.15 0.015     121.95    0.100     63.29        0.886 0.95 1.00
            5    277      29.49 0.015     121.95    0.150     79.00        1.129 0.95 1.00
            5    278    1840.83 0.148      24.39    0.150     79.00        0.499 0.95 1.00
            5    279     179.48 0.037      91.46    0.150     79.00        0.757 0.95 1.00
            5    280      15.54 0.006     121.95    0.150     79.00        1.480 0.95 1.00
            5    281    2700.46 0.132      24.39    0.150     69.00        0.620 0.95 1.00
            5    282      30.87 0.006     121.95    0.150     69.00        1.484 0.95 1.00
            5    283      75.16 0.016     121.95    0.150     69.00        1.117 0.95 1.00
            5    284     431.14 0.037      91.46    0.150     69.00        0.799 0.95 1.00
            6    285      15.91 0.006     121.95    0.300     72.00        2.241 0.95 1.00
            6    286    1073.24 0.121      24.39    0.300     72.00        0.507 0.95 1.00
            6    287     205.24 0.036      91.46    0.300     72.00        1.138 0.95 1.00
            6    288      36.34 0.015     121.95    0.300     72.00        1.708 0.95 1.00
            6    289    1055.47 0.115      60.98    0.300     59.00        0.768 0.95 1.00
            6    290     251.68 0.036      91.46    0.300     59.00        1.145 0.95 1.00
            6    291      23.45 0.006     121.95    0.300     59.00        2.242 0.95 1.00
            6    292      48.52 0.015     121.95    0.300     59.00        1.710 0.95 1.00
            6    293    6953.24 0.141      24.39    0.300     59.00        1.159 0.95 1.00
            6    294     154.98 0.015     121.95    0.300     59.00        1.729 0.95 1.00
            6    295      70.35 0.006     121.95    0.300     59.00        2.252 0.95 1.00
            6    296     864.05 0.037      91.46    0.300     59.00        1.224 0.95 1.00
            6    297     448.21 0.036      91.46    0.100     77.00        0.644 0.95 1.00
            6    298   18988.64 0.347       9.15    0.100     77.00        2.068 0.95 1.00
            6    299      93.74 0.015     121.95    0.100     77.00        0.898 0.95 1.00
            6    300      92.02 0.004     121.95    0.100     77.00        1.326 0.95 1.00
            6    301       5.45 0.016     121.95    0.100     77.00        0.864 0.95 1.00
            6    302      56.28 0.038      91.46    0.100     77.00        0.572 0.95 1.00
            6    303       1.29 0.007     121.95    0.100     77.00        1.105 0.95 1.00
            6    304    6546.76 0.349       9.15    0.100     77.00        0.858 0.95 1.00
            6    305      25.55 0.006     121.95    0.100     66.00        1.163 0.95 1.00
            6    306    6872.21 0.213      15.24    0.100     66.00        0.934 0.95 1.00
            6    307     312.53 0.037      91.46    0.100     66.00        0.619 0.95 1.00
            6    308      55.56 0.015     121.95    0.100     66.00        0.891 0.95 1.00
            6    309     139.13 0.139      24.39    0.010     92.00        0.070 0.95 1.00
            6    310      35.13 0.034      91.46    0.010     92.00        0.153 0.95 1.00
            6    311      21.33 0.015     121.95    0.010     92.00        0.226 0.95 1.00
            6    312     143.18 0.001     121.95    0.010     92.00        0.525 0.95 1.00
            6    313      23.89 0.034      91.46    0.010     92.00        0.151 0.95 1.00
            6    314      96.35 0.240      15.24    0.010     92.00        0.047 0.95 1.00
            6    315      49.62 0.002     121.95    0.010     92.00        0.415 0.95 1.00
            6    316      11.59 0.014     121.95    0.010     92.00        0.228 0.95 1.00
            6    317     176.46 0.165      18.29    0.010     92.00        0.068 0.95 1.00
            6    318      81.39 0.033      91.46    0.010     92.00        0.164 0.95 1.00
            6    319     735.52 0.001     121.95    0.010     92.00        0.614 0.95 1.00
            6    320      47.53 0.015     121.95    0.010     92.00        0.231 0.95 1.00
            6    321     226.33 0.036      91.46    0.100     97.48        0.610 0.95 1.00
            6    322      48.84 0.016     121.95    0.100     97.48        0.873 0.95 1.00
            6    323    1165.27 0.136      24.39    0.100     97.48        0.346 0.95 1.00
            6    324      15.43 0.006     121.95    0.100     97.48        1.161 0.95 1.00
            6    325      50.93 0.015     121.95    0.100     97.22        0.890 0.95 1.00
            6    326     289.28 0.036      91.46    0.100     97.22        0.620 0.95 1.00
            6    327    1510.23 0.129      24.39    0.100     97.22        0.393 0.95 1.00
            6    328      22.93 0.006     121.95    0.100     97.22        1.163 0.95 1.00
            6    329    1157.34 0.230      15.24    0.100     97.48        0.284 0.95 1.00
            6    330      33.51 0.015     121.95    0.100     97.48        0.887 0.95 1.00
            6    331      19.29 0.005     121.95    0.100     97.48        1.227 0.95 1.00
            6    332     147.62 0.037      91.46    0.100     97.48        0.593 0.95 1.00
            6    333      26.24 0.006     121.95    0.100     97.22        1.163 0.95 1.00
            6    334      59.53 0.015     121.95    0.100     97.22        0.892 0.95 1.00
            6    335     309.56 0.036      91.46    0.100     97.22        0.623 0.95 1.00
            6    336    1518.72 0.129      24.39    0.100     97.22        0.394 0.95 1.00
            6    337      89.41 0.015     121.95    0.100     97.22        0.897 0.95 1.00
            6    338     453.10 0.036      91.46    0.100     97.22        0.645 0.95 1.00
            6    339    2431.09 0.131      24.39    0.100     97.22        0.505 0.95 1.00
            6    340      41.34 0.006     121.95    0.100     97.22        1.166 0.95 1.00
            6    341     346.95 0.124      24.39    0.100     74.86        0.238 0.95 1.00
            6    342      24.25 0.015     121.95    0.100     74.86        0.885 0.95 1.00
            6    343      93.12 0.035      91.46    0.100     74.86        0.593 0.95 1.00
            6    344      10.29 0.006     121.95    0.100     74.86        1.160 0.95 1.00
            6    345     115.88 0.036      91.46    0.100     63.29        0.592 0.95 1.00
            6    346     455.85 0.112      60.98    0.100     63.29        0.394 0.95 1.00
            6    347       8.35 0.006     121.95    0.100     63.29        1.159 0.95 1.00
            6    348      17.84 0.015     121.95    0.100     63.29        0.883 0.95 1.00
            6    349     917.98 0.112      60.98    0.100     63.29        0.458 0.95 1.00
            6    350     286.32 0.036      91.46    0.100     63.29        0.620 0.95 1.00
            6    351      59.94 0.015     121.95    0.100     63.29        0.892 0.95 1.00
            6    352      23.79 0.006     121.95    0.100     63.29        1.163 0.95 1.00
            6    353      28.02 0.005     121.95    0.100     63.29        1.229 0.95 1.00
            6    354     962.26 0.115      60.98    0.100     63.29        0.462 0.95 1.00
            6    355      61.08 0.015     121.95    0.100     63.29        0.892 0.95 1.00
            6    356     293.76 0.036      91.46    0.100     63.29        0.621 0.95 1.00
            6    357     605.33 0.037      91.46    0.150     79.00        0.817 0.95 1.00
            6    358    3731.42 0.131      24.39    0.150     79.00        0.703 0.95 1.00
            6    359      96.71 0.016     121.95    0.150     79.00        1.119 0.95 1.00
            6    360      38.88 0.006     121.95    0.150     79.00        1.485 0.95 1.00
            6    361      66.25 0.015     121.95    0.150     79.00        1.135 0.95 1.00
            6    362      48.30 0.005     121.95    0.150     79.00        1.569 0.95 1.00
            6    363    1569.14 0.124      24.39    0.150     79.00        0.452 0.95 1.00
            6    364     299.67 0.036      91.46    0.150     79.00        0.778 0.95 1.00
            6    365    4371.63 0.125      24.39    0.150     69.00        0.778 0.95 1.00
            6    366     773.04 0.036      91.46    0.150     69.00        0.847 0.95 1.00
            6    367     135.93 0.016     121.95    0.150     69.00        1.126 0.95 1.00
            6    368      56.83 0.006     121.95    0.150     69.00        1.488 0.95 1.00
            6    369      59.38 0.015     121.95    0.150     79.00        1.134 0.95 1.00
            6    370      45.64 0.005     121.95    0.150     79.00        1.569 0.95 1.00
            6    371    1813.30 0.181      18.29    0.150     79.00        0.426 0.95 1.00
            6    372     282.17 0.036      91.46    0.150     79.00        0.776 0.95 1.00
            7    373   31407.43 0.106      60.98    0.100     66.00        4.488 0.95 1.00
            7    374    8960.19 0.036      91.46    0.100     66.00        1.959 0.95 1.00
            7    375    2147.37 0.015     121.95    0.100     66.00        1.277 0.95 1.00
            7    376    1025.87 0.006     121.95    0.100     66.00        1.366 0.95 1.00
            7    377     173.95 0.005     121.95    0.100     77.00        1.266 0.95 1.00
            7    378     362.18 0.015     121.95    0.100     77.00        0.963 0.95 1.00
            7    379    1749.68 0.036      91.46    0.100     77.00        0.902 0.95 1.00
            7    380   13495.43 0.137      24.39    0.100     77.00        2.161 0.95 1.00
            7    381     202.49 0.005     121.95    0.100     66.00        1.273 0.95 1.00
            7    382    2000.53 0.035      91.46    0.100     66.00        0.948 0.95 1.00
            7    383   16485.60 0.146      24.39    0.100     66.00        2.539 0.95 1.00
            7    384     434.79 0.015     121.95    0.100     66.00        0.977 0.95 1.00
            7    385     353.15 0.014     121.95    0.010     92.00        0.307 0.95 1.00
            7    386    1035.47 0.136      24.39    0.010     92.00        0.254 0.95 1.00
            7    387   20387.72 0.000     121.95    0.010     92.00        3.847 0.95 1.00
            7    388     433.17 0.033      91.46    0.010     92.00        0.245 0.95 1.00
            7    389     170.87 0.140      24.39    0.010     92.00        0.086 0.95 1.00
            7    390     111.20 0.034      91.46    0.010     92.00        0.175 0.95 1.00
            7    391    3946.33 0.000     121.95    0.010     92.00        1.671 0.95 1.00
            7    392      64.79 0.014     121.95    0.010     92.00        0.244 0.95 1.00
            7    393     166.93 0.081      60.98    0.100     97.22        0.392 0.95 1.00
            7    394     328.28 0.032      91.46    0.100     97.22        0.666 0.95 1.00
            7    395     183.48 0.006     121.95    0.100     97.22        1.203 0.95 1.00
            7    396     259.97 0.015     121.95    0.100     97.22        0.942 0.95 1.00
            7    397     831.85 0.035      91.46    0.100     97.22        0.747 0.95 1.00
            7    398    1204.21 0.087      60.98    0.100     97.22        0.582 0.95 1.00
            7    399     273.39 0.015     121.95    0.100     97.22        0.945 0.95 1.00
            7    400     131.74 0.006     121.95    0.100     97.22        1.192 0.95 1.00
            7    401     671.47 0.083      60.98    0.150     69.00        0.587 0.95 1.00
            7    402    1016.69 0.033      91.46    0.150     69.00        0.952 0.95 1.00
            7    403     319.07 0.006     121.95    0.150     69.00        1.551 0.95 1.00
            7    404     566.75 0.015     121.95    0.150     69.00        1.245 0.95 1.00
            7    405    5128.85 0.090      60.98    0.150     69.00        1.285 0.95 1.00
            7    406    3227.26 0.035      91.46    0.150     69.00        1.300 0.95 1.00
            7    407     974.95 0.015     121.95    0.150     69.00        1.321 0.95 1.00
            7    408     447.50 0.007     121.95    0.150     69.00        1.510 0.95 1.00
            7    409     277.93 0.014     121.95    0.050     66.00        0.659 0.95 1.00
            7    410     168.98 0.105      60.98    0.050     66.00        0.256 0.95 1.00
            7    411    1205.66 0.004     121.95    0.050     66.00        1.102 0.95 1.00
            7    412     191.47 0.032      91.46    0.050     66.00        0.437 0.95 1.00
            7    413     163.87 0.005     121.95    0.050     66.00        0.848 0.95 1.00
            7    414     516.73 0.097      60.98    0.050     66.00        0.333 0.95 1.00
            7    415     282.90 0.034      91.46    0.050     66.00        0.449 0.95 1.00
            7    416     164.45 0.015     121.95    0.050     66.00        0.622 0.95 1.00
            7    417      56.96 0.004     121.95    0.050     77.00        0.879 0.95 1.00
            7    418     124.88 0.034      91.46    0.050     77.00        0.415 0.95 1.00
            7    419      58.28 0.015     121.95    0.050     77.00        0.597 0.95 1.00
            7    420     346.57 0.134      24.39    0.050     77.00        0.195 0.95 1.00
            7    421     141.67 0.034      91.46    0.050     66.00        0.419 0.95 1.00
            7    422      64.26 0.015     121.95    0.050     66.00        0.598 0.95 1.00
            7    423     321.90 0.132      24.39    0.050     66.00        0.191 0.95 1.00
            7    424      41.63 0.005     121.95    0.050     66.00        0.819 0.95 1.00
            8    425      23.40 0.015     121.95    0.300     59.00        1.701 0.95 1.00
            8    426      12.28 0.006     121.95    0.300     59.00        2.238 0.95 1.00
            8    427      76.13 0.035      91.46    0.300     59.00        1.115 0.95 1.00
            8    428    1014.56 0.233      15.24    0.300     59.00        0.271 0.95 1.00
            8    429     417.35 0.033      91.46    0.300     72.00        1.154 0.95 1.00
            8    430     896.10 0.155      24.39    0.300     72.00        0.372 0.95 1.00
            8    431     211.79 0.015     121.95    0.300     72.00        1.713 0.95 1.00
            8    432     114.27 0.007     121.95    0.300     72.00        2.144 0.95 1.00
            8    433    2116.67 0.169      18.29    0.300     79.00        0.370 0.95 1.00
            8    434      26.44 0.016     121.95    0.300     79.00        1.669 0.95 1.00
            8    435       8.67 0.005     121.95    0.300     79.00        2.363 0.95 1.00
            8    436     212.07 0.037      91.46    0.300     79.00        1.105 0.95 1.00
            8    437    1820.08 0.155      24.39    0.300     59.00        0.415 0.95 1.00
            8    438     323.74 0.036      91.46    0.300     59.00        1.120 0.95 1.00
            8    439      65.29 0.015     121.95    0.300     59.00        1.704 0.95 1.00
            8    440      27.59 0.006     121.95    0.300     59.00        2.239 0.95 1.00
            8    441     120.78 0.015     121.95    0.100     66.00        0.888 0.95 1.00
            8    442      51.13 0.006     121.95    0.100     66.00        1.161 0.95 1.00
            8    443     550.21 0.036      91.46    0.100     66.00        0.602 0.95 1.00
            8    444   40627.57 0.320       9.15    0.100     66.00        1.496 0.95 1.00
            8    445      37.21 0.015     121.95    0.100     77.00        0.882 0.95 1.00
            8    446     182.94 0.037      91.46    0.100     77.00        0.577 0.95 1.00
            8    447      29.09 0.005     121.95    0.100     77.00        1.225 0.95 1.00
            8    448   30429.26 0.402       9.15    0.100     77.00        1.174 0.95 1.00
            8    449      16.07 0.006     121.95    0.100     66.00        1.159 0.95 1.00
            8    450      31.38 0.016     121.95    0.100     66.00        0.865 0.95 1.00
            8    451   25939.42 0.358       9.15    0.100     66.00        1.032 0.95 1.00
            8    452     222.45 0.037      91.46    0.100     66.00        0.579 0.95 1.00
            8    453      47.58 0.037      91.46    0.100     97.22        0.568 0.95 1.00
            8    454    1587.02 0.243      15.24    0.100     97.22        0.193 0.95 1.00
            8    455       2.77 0.008     121.95    0.100     97.22        1.062 0.95 1.00
            8    456       7.59 0.015     121.95    0.100     97.22        0.880 0.95 1.00
            8    457      40.18 0.006     121.95    0.100     97.22        1.160 0.95 1.00
            8    458     312.18 0.034      91.46    0.100     97.22        0.599 0.95 1.00
            8    459     104.06 0.015     121.95    0.100     97.22        0.887 0.95 1.00
            8    460    4496.47 0.245      15.24    0.100     97.22        0.316 0.95 1.00
            8    461    1808.47 0.254       9.15    0.100     97.62        0.173 0.95 1.00
            8    462       8.15 0.005     121.95    0.100     97.62        1.223 0.95 1.00
            8    463     125.35 0.036      91.46    0.100     97.62        0.578 0.95 1.00
            8    464      22.22 0.015     121.95    0.100     97.62        0.881 0.95 1.00
            8    465    1761.64 0.239      15.24    0.150     69.00        0.232 0.95 1.00
            8    466      58.04 0.006     121.95    0.150     69.00        1.480 0.95 1.00
            8    467     136.21 0.035      91.46    0.150     69.00        0.741 0.95 1.00
            8    468      50.41 0.015     121.95    0.150     69.00        1.125 0.95 1.00
            8    469       8.42 0.016     121.95    0.150     69.00        1.100 0.95 1.00
            8    470      39.08 0.036      91.46    0.150     69.00        0.729 0.95 1.00
            8    471    1124.68 0.231      15.24    0.150     69.00        0.203 0.95 1.00
            8    472       1.45 0.007     121.95    0.150     69.00        1.409 0.95 1.00
            8    473      29.88 0.007     121.95    0.150     69.00        1.412 0.95 1.00
            8    474     223.33 0.035      91.46    0.150     69.00        0.747 0.95 1.00
            8    475      71.99 0.015     121.95    0.150     69.00        1.127 0.95 1.00
            8    476    3895.96 0.233      15.24    0.150     69.00        0.324 0.95 1.00
            9    477     845.01 0.036      91.46    0.300     59.00        1.165 0.95 1.00
            9    478    4599.76 0.127      24.39    0.300     59.00        0.631 0.95 1.00
            9    479      52.54 0.006     121.95    0.300     59.00        2.243 0.95 1.00
            9    480     142.54 0.016     121.95    0.300     59.00        1.680 0.95 1.00
            9    481       2.43 0.007     121.95    0.300     59.00        2.136 0.95 1.00
            9    482     137.16 0.038      91.46    0.300     59.00        1.095 0.95 1.00
            9    483    1209.16 0.140      24.39    0.300     59.00        0.421 0.95 1.00
            9    484      14.92 0.016     121.95    0.300     59.00        1.668 0.95 1.00
            9    485      48.75 0.005     121.95    0.100     66.00        1.227 0.95 1.00
            9    486      95.09 0.016     121.95    0.100     66.00        0.872 0.95 1.00
            9    487     605.83 0.037      91.46    0.100     66.00        0.613 0.95 1.00
            9    488   10211.85 0.203      15.24    0.100     66.00        0.699 0.95 1.00
            9    489   28251.68 0.408       9.15    0.100     77.00        1.489 0.95 1.00
            9    490     158.06 0.037      91.46    0.100     77.00        0.579 0.95 1.00
            9    491      20.32 0.016     121.95    0.100     77.00        0.865 0.95 1.00
            9    492       9.15 0.006     121.95    0.100     77.00        1.158 0.95 1.00
            9    493      22.09 0.006     121.95    0.100     66.00        1.160 0.95 1.00
            9    494      58.40 0.015     121.95    0.100     66.00        0.885 0.95 1.00
            9    495     362.97 0.037      91.46    0.100     66.00        0.596 0.95 1.00
            9    496   29335.63 0.327       9.15    0.100     66.00        1.542 0.95 1.00
            9    497     115.08 0.006     121.95    0.100     97.22        1.169 0.95 1.00
            9    498     278.96 0.016     121.95    0.100     97.22        0.887 0.95 1.00
            9    499    8177.83 0.132      24.39    0.100     97.22        0.654 0.95 1.00
            9    500    1637.87 0.036      91.46    0.100     97.22        0.686 0.95 1.00
            9    501     111.43 0.036      91.46    0.100     97.22        0.580 0.95 1.00
            9    502    1669.65 0.240      15.24    0.100     97.22        0.229 0.95 1.00
            9    503      17.33 0.016     121.95    0.100     97.22        0.864 0.95 1.00
            9    504       9.43 0.006     121.95    0.100     97.22        1.158 0.95 1.00
            9    505     100.83 0.006     121.95    0.100     63.29        1.167 0.95 1.00
            9    506     225.15 0.016     121.95    0.100     63.29        0.883 0.95 1.00
            9    507    1230.99 0.036      91.46    0.100     63.29        0.660 0.95 1.00
            9    508    3596.81 0.113      60.98    0.100     63.29        0.550 0.95 1.00
            9    509      86.57 0.006     121.95    0.150     69.00        1.485 0.95 1.00
            9    510    1358.02 0.037      91.46    0.150     69.00        0.819 0.95 1.00
            9    511    9235.02 0.136      24.39    0.150     69.00        0.754 0.95 1.00
            9    512     234.06 0.016     121.95    0.150     69.00        1.121 0.95 1.00
           10    513      48.19 0.005     121.95    0.300     59.00        2.377 0.95 1.00
           10    514     483.40 0.037      91.46    0.300     59.00        1.203 0.95 1.00
           10    515      81.55 0.015     121.95    0.300     59.00        1.723 0.95 1.00
           10    516    7948.72 0.186      18.29    0.300     59.00        1.556 0.95 1.00
           10    517    1130.69 0.036      91.46    0.300     72.00        1.336 0.95 1.00
           10    518    6273.96 0.150      24.39    0.300     72.00        1.381 0.95 1.00
           10    519      85.33 0.006     121.95    0.300     72.00        2.261 0.95 1.00
           10    520     218.23 0.015     121.95    0.300     72.00        1.755 0.95 1.00
           10    521     227.86 0.006     121.95    0.300     59.00        2.295 0.95 1.00
           10    522   16433.13 0.161      18.29    0.300     59.00        2.722 0.95 1.00
           10    523    1913.84 0.036      91.46    0.300     59.00        1.474 0.95 1.00
           10    524     449.12 0.015     121.95    0.300     59.00        1.804 0.95 1.00
           10    525      11.10 0.016     121.95    0.100     73.00        0.866 0.95 1.00
           10    526      78.77 0.036      91.46    0.100     73.00        0.592 0.95 1.00
           10    527     923.82 0.198      18.29    0.100     73.00        0.328 0.95 1.00
           10    528       6.53 0.006     121.95    0.100     73.00        1.160 0.95 1.00
           10    529      17.12 0.006     121.95    0.100     73.00        1.163 0.95 1.00
           10    530      46.50 0.015     121.95    0.100     73.00        0.893 0.95 1.00
           10    531     196.05 0.036      91.46    0.100     73.00        0.620 0.95 1.00
           10    532    1348.60 0.193      18.29    0.100     73.00        0.406 0.95 1.00
           10    533     155.16 0.036      91.46    0.100     60.00        0.610 0.95 1.00
           10    534    1196.29 0.190      18.29    0.100     60.00        0.379 0.95 1.00
           10    535      10.71 0.007     121.95    0.100     60.00        1.109 0.95 1.00
           10    536      29.92 0.015     121.95    0.100     60.00        0.889 0.95 1.00
           10    537      25.74 0.036      91.46    0.100     73.00        0.577 0.95 1.00
           10    538    1463.79 0.330       9.15    0.100     73.00        0.369 0.95 1.00
           10    539       2.09 0.006     121.95    0.100     73.00        1.158 0.95 1.00
           10    540       5.35 0.015     121.95    0.100     73.00        0.881 0.95 1.00
           10    541     796.84 0.037      91.46    0.100     66.00        0.738 0.95 1.00
           10    542     144.38 0.015     121.95    0.100     66.00        0.918 0.95 1.00
           10    543     177.80 0.003     121.95    0.100     66.00        1.471 0.95 1.00
           10    544   43432.70 0.289       9.15    0.100     66.00        5.822 0.95 1.00
           10    545     765.82 0.036      91.46    0.100     66.00        0.737 0.95 1.00
           10    546     151.60 0.015     121.95    0.100     66.00        0.920 0.95 1.00
           10    547      60.23 0.007     121.95    0.100     66.00        1.123 0.95 1.00
           10    548   21595.29 0.244      15.24    0.100     66.00        3.227 0.95 1.00
           10    549   79074.02 0.362       9.15    0.100     77.00        9.777 0.95 1.00
           10    550     166.06 0.016     121.95    0.100     77.00        0.906 0.95 1.00
           10    551     946.89 0.037      91.46    0.100     77.00        0.766 0.95 1.00
           10    552      82.75 0.005     121.95    0.100     77.00        1.246 0.95 1.00
           10    553      56.59 0.015     121.95    0.100     97.22        0.896 0.95 1.00
           10    554     295.65 0.037      91.46    0.100     97.22        0.637 0.95 1.00
           10    555    6305.52 0.221      15.24    0.100     97.22        1.174 0.95 1.00
           10    556      36.55 0.004     121.95    0.100     97.22        1.318 0.95 1.00
           10    557     486.65 0.036      91.46    0.100     97.22        0.682 0.95 1.00
           10    558     124.23 0.015     121.95    0.100     97.22        0.913 0.95 1.00
           10    559      65.53 0.005     121.95    0.100     97.22        1.242 0.95 1.00
           10    560    4102.85 0.207      15.24    0.100     97.22        0.844 0.95 1.00
           10    561     197.06 0.036      91.46    0.100     97.48        0.620 0.95 1.00
           10    562      46.13 0.016     121.95    0.100     97.48        0.876 0.95 1.00
           10    563    4189.49 0.291       9.15    0.100     97.48        0.819 0.95 1.00
           10    564      16.85 0.006     121.95    0.100     97.48        1.163 0.95 1.00
           10    565      89.06 0.037      91.46    0.100     63.29        0.590 0.95 1.00
           10    566       6.73 0.006     121.95    0.100     63.29        1.160 0.95 1.00
           10    567      14.76 0.016     121.95    0.100     63.29        0.867 0.95 1.00
           10    568     958.26 0.178      18.29    0.100     63.29        0.338 0.95 1.00
           10    569      47.72 0.005     121.95    0.100     74.86        1.237 0.95 1.00
           10    570     180.26 0.035      91.46    0.100     74.86        0.621 0.95 1.00
           10    571      61.68 0.015     121.95    0.100     74.86        0.897 0.95 1.00
           10    572     532.65 0.128      24.39    0.100     74.86        0.298 0.95 1.00
           10    573      61.68 0.015     121.95    0.100     74.86        0.897 0.95 1.00
           10    574      33.90 0.005     121.95    0.100     74.86        1.233 0.95 1.00
           10    575     186.99 0.034      91.46    0.100     74.86        0.627 0.95 1.00
           10    576     357.70 0.106      60.98    0.100     74.86        0.409 0.95 1.00
           10    577      58.11 0.005     121.95    0.100     63.29        1.240 0.95 1.00
           10    578    1308.39 0.160      24.39    0.100     63.29        0.433 0.95 1.00
           10    579      96.41 0.015     121.95    0.100     63.29        0.906 0.95 1.00
           10    580     340.45 0.035      91.46    0.100     63.29        0.656 0.95 1.00
           10    581     881.48 0.232      15.24    0.100     74.86        0.301 0.95 1.00
           10    582     100.88 0.036      91.46    0.100     74.86        0.597 0.95 1.00
           10    583      22.08 0.016     121.95    0.100     74.86        0.870 0.95 1.00
           10    584       7.69 0.006     121.95    0.100     74.86        1.160 0.95 1.00
           10    585      88.74 0.004     121.95    0.150     69.00        1.692 0.95 1.00
           10    586     120.43 0.015     121.95    0.150     69.00        1.154 0.95 1.00
           10    587     740.00 0.037      91.46    0.150     69.00        0.882 0.95 1.00
           10    588   16719.45 0.208      15.24    0.150     69.00        2.638 0.95 1.00
           10    589      94.59 0.006     121.95    0.150     69.00        1.503 0.95 1.00
           10    590    9558.46 0.184      18.29    0.150     69.00        1.697 0.95 1.00
           10    591     890.35 0.036      91.46    0.150     69.00        0.917 0.95 1.00
           10    592     195.51 0.015     121.95    0.150     69.00        1.172 0.95 1.00
           10    593      28.27 0.005     121.95    0.150     79.00        1.568 0.95 1.00
           10    594    7418.92 0.288       9.15    0.150     79.00        1.322 0.95 1.00
           10    595      42.10 0.015     121.95    0.150     79.00        1.134 0.95 1.00
           10    596     261.19 0.036      91.46    0.150     79.00        0.791 0.95 1.00
           11    597    1336.47 0.037      91.46    0.300     59.00        1.263 0.95 1.00
           11    598    8888.65 0.126      24.39    0.300     59.00        1.248 0.95 1.00
           11    599     127.15 0.005     121.95    0.300     59.00        2.385 0.95 1.00
           11    600     214.43 0.016     121.95    0.300     59.00        1.701 0.95 1.00
           11    601     252.40 0.006     121.95    0.300     59.00        2.277 0.95 1.00
           11    602    2891.59 0.036      91.46    0.300     59.00        1.439 0.95 1.00
           11    603   13801.47 0.128      24.39    0.300     59.00        1.671 0.95 1.00
           11    604     534.87 0.015     121.95    0.300     59.00        1.777 0.95 1.00
           11    605     395.47 0.006     121.95    0.300     72.00        2.296 0.95 1.00
           11    606     612.71 0.015     121.95    0.300     72.00        1.786 0.95 1.00
           11    607    2087.53 0.035      91.46    0.300     72.00        1.364 0.95 1.00
           11    608    6615.20 0.139      24.39    0.300     72.00        1.031 0.95 1.00
           11    609     128.52 0.016     121.95    0.100     66.00        0.884 0.95 1.00
           11    610      70.59 0.005     121.95    0.100     66.00        1.235 0.95 1.00
           11    611   55712.09 0.341       9.15    0.100     66.00        4.587 0.95 1.00
           11    612     744.21 0.037      91.46    0.100     66.00        0.668 0.95 1.00
           11    613     979.99 0.036      91.46    0.100     77.00        0.700 0.95 1.00
           11    614   26465.84 0.296       9.15    0.100     77.00        2.429 0.95 1.00
           11    615     216.76 0.015     121.95    0.100     77.00        0.914 0.95 1.00
           11    616     137.34 0.006     121.95    0.100     77.00        1.181 0.95 1.00
           11    617     901.97 0.185      18.29    0.010     92.00        0.156 0.95 1.00
           11    618    8805.25 0.001     121.95    0.010     92.00        1.396 0.95 1.00
           11    619     588.55 0.032      91.46    0.010     92.00        0.232 0.95 1.00
           11    620     443.37 0.015     121.95    0.010     92.00        0.287 0.95 1.00
           11    621    4901.21 0.123      24.39    0.100     97.22        0.716 0.95 1.00
           11    622     202.94 0.015     121.95    0.100     97.22        0.912 0.95 1.00
           11    623     114.90 0.005     121.95    0.100     97.22        1.242 0.95 1.00
           11    624    1038.50 0.036      91.46    0.100     97.22        0.707 0.95 1.00
           11    625     807.25 0.036      91.46    0.100     97.22        0.680 0.95 1.00
           11    626     146.32 0.015     121.95    0.100     97.22        0.904 0.95 1.00
           11    627    3821.53 0.131      24.39    0.100     97.22        0.608 0.95 1.00
           11    628      77.63 0.005     121.95    0.100     97.22        1.236 0.95 1.00
           11    629      41.51 0.005     121.95    0.100     97.22        1.230 0.95 1.00
           11    630      60.54 0.015     121.95    0.100     97.22        0.890 0.95 1.00
           11    631    2590.16 0.293       9.15    0.100     97.22        0.384 0.95 1.00
           11    632     228.99 0.034      91.46    0.100     97.22        0.615 0.95 1.00
           11    633    1966.33 0.177      18.29    0.100     97.48        0.376 0.95 1.00
           11    634     479.46 0.035      91.46    0.100     97.48        0.644 0.95 1.00
           11    635     144.36 0.015     121.95    0.100     97.48        0.904 0.95 1.00
           11    636      86.59 0.006     121.95    0.100     97.48        1.173 0.95 1.00
           11    637     125.85 0.016     121.95    0.100     63.29        0.884 0.95 1.00
           11    638    1893.09 0.112      60.98    0.100     63.29        0.551 0.95 1.00
           11    639     585.78 0.035      91.46    0.100     63.29        0.657 0.95 1.00
           11    640      68.32 0.005     121.95    0.100     63.29        1.235 0.95 1.00
           11    641      60.49 0.006     121.95    0.100     63.29        1.169 0.95 1.00
           11    642     120.81 0.015     121.95    0.100     63.29        0.900 0.95 1.00
           11    643     485.13 0.035      91.46    0.100     63.29        0.645 0.95 1.00
           11    644     672.35 0.086      60.98    0.100     63.29        0.438 0.95 1.00
           11    645     974.98 0.122      24.39    0.100     63.29        0.309 0.95 1.00
           11    646     225.10 0.036      91.46    0.100     63.29        0.605 0.95 1.00
           11    647      36.85 0.016     121.95    0.100     63.29        0.870 0.95 1.00
           11    648      25.90 0.005     121.95    0.100     63.29        1.228 0.95 1.00
           11    649     604.73 0.036      91.46    0.150     69.00        0.812 0.95 1.00
           11    650    4806.95 0.139      24.39    0.150     69.00        0.748 0.95 1.00
           11    651     155.95 0.003     121.95    0.150     69.00        1.843 0.95 1.00
           11    652     133.43 0.015     121.95    0.150     69.00        1.144 0.95 1.00
           11    653     535.48 0.036      91.46    0.150     69.00        0.803 0.95 1.00
           11    654      74.46 0.005     121.95    0.150     69.00        1.572 0.95 1.00
           11    655    2864.94 0.152      24.39    0.150     69.00        0.549 0.95 1.00
           11    656     121.52 0.015     121.95    0.150     69.00        1.142 0.95 1.00
           11    657      49.22 0.003     121.95    0.150     69.00        1.826 0.95 1.00
           11    658      53.37 0.015     121.95    0.150     69.00        1.131 0.95 1.00
           11    659    2312.34 0.231      15.24    0.150     69.00        0.421 0.95 1.00
           11    660     200.31 0.035      91.46    0.150     69.00        0.764 0.95 1.00
           11    661      78.96 0.015     121.95    0.150     79.00        1.136 0.95 1.00
           11    662    2238.05 0.187      18.29    0.150     79.00        0.440 0.95 1.00
           11    663      40.39 0.006     121.95    0.150     79.00        1.484 0.95 1.00
           11    664     267.21 0.035      91.46    0.150     79.00        0.774 0.95 1.00
           12    665     153.59 0.015     121.95    0.300     59.00        1.730 0.95 1.00
           12    666      70.49 0.006     121.95    0.300     59.00        2.252 0.95 1.00
           12    667   10685.51 0.174      18.29    0.300     59.00        1.530 0.95 1.00
           12    668     845.10 0.036      91.46    0.300     59.00        1.237 0.95 1.00
           12    669     860.76 0.015     121.95    0.300     59.00        1.839 0.95 1.00
           12    670     444.49 0.006     121.95    0.300     59.00        2.315 0.95 1.00
           12    671    3835.31 0.036      91.46    0.300     59.00        1.617 0.95 1.00
           12    672   54837.10 0.197      18.29    0.300     59.00        5.562 0.95 1.00
           12    673   13795.08 0.220      15.24    0.300     59.00        1.805 0.95 1.00
           12    674     824.30 0.036      91.46    0.300     59.00        1.234 0.95 1.00
           12    675     150.03 0.006     121.95    0.300     59.00        2.267 0.95 1.00
           12    676     195.34 0.015     121.95    0.300     59.00        1.737 0.95 1.00
           12    677     307.08 0.003     121.95    0.100     66.00        1.481 0.95 1.00
           12    678    1620.22 0.037      91.46    0.100     66.00        0.808 0.95 1.00
           12    679     292.68 0.015     121.95    0.100     66.00        0.933 0.95 1.00
           12    680   61906.49 0.246      15.24    0.100     66.00        6.014 0.95 1.00
           12    681     303.52 0.006     121.95    0.100     66.00        1.213 0.95 1.00
           12    682     495.20 0.015     121.95    0.100     66.00        0.965 0.95 1.00
           12    683    2197.25 0.036      91.46    0.100     66.00        0.887 0.95 1.00
           12    684  105873.59 0.316       9.15    0.100     66.00        9.518 0.95 1.00
           12    685    2112.21 0.037      91.46    0.100     77.00        0.871 0.95 1.00
           12    686  160496.92 0.348       9.15    0.100     77.00       13.663 0.95 1.00
           12    687     384.79 0.015     121.95    0.100     77.00        0.948 0.95 1.00
           12    688     206.23 0.006     121.95    0.100     77.00        1.197 0.95 1.00
           12    689    1102.59 0.277       9.15    0.010     92.00        0.193 0.95 1.00
           12    690     737.59 0.001     121.95    0.010     92.00        0.620 0.95 1.00
           12    691      68.35 0.015     121.95    0.010     92.00        0.236 0.95 1.00
           12    692     142.71 0.034      91.46    0.010     92.00        0.174 0.95 1.00
           12    693     454.51 0.033      91.46    0.010     92.00        0.227 0.95 1.00
           12    694    6120.54 0.001     121.95    0.010     92.00        1.277 0.95 1.00
           12    695    1873.39 0.226      15.24    0.010     92.00        0.305 0.95 1.00
           12    696     324.27 0.014     121.95    0.010     92.00        0.285 0.95 1.00
           12    697     119.67 0.015     121.95    0.100     97.22        0.904 0.95 1.00
           12    698      74.00 0.005     121.95    0.100     97.22        1.238 0.95 1.00
           12    699     635.06 0.036      91.46    0.100     97.22        0.676 0.95 1.00
           12    700    9588.41 0.197      18.29    0.100     97.22        1.285 0.95 1.00
           12    701     261.61 0.015     121.95    0.100     97.22        0.928 0.95 1.00
           12    702    1228.16 0.036      91.46    0.100     97.22        0.760 0.95 1.00
           12    703   12551.77 0.209      15.24    0.100     97.22        1.576 0.95 1.00
           12    704     125.62 0.006     121.95    0.100     97.22        1.183 0.95 1.00
           12    705     423.34 0.036      91.46    0.100     97.48        0.644 0.95 1.00
           12    706    9335.34 0.316       9.15    0.100     97.48        1.202 0.95 1.00
           12    707      41.75 0.006     121.95    0.100     97.48        1.167 0.95 1.00
           12    708      89.31 0.015     121.95    0.100     97.48        0.898 0.95 1.00
           12    709     128.06 0.004     121.95    0.150     69.00        1.693 0.95 1.00
           12    710     168.24 0.015     121.95    0.150     69.00        1.155 0.95 1.00
           12    711    1000.37 0.037      91.46    0.150     69.00        0.879 0.95 1.00
           12    712   18435.42 0.194      18.29    0.150     69.00        2.213 0.95 1.00
           12    713     114.94 0.015     121.95    0.150     79.00        1.145 0.95 1.00
           12    714     605.15 0.036      91.46    0.150     79.00        0.828 0.95 1.00
           12    715    8355.01 0.208      15.24    0.150     79.00        1.170 0.95 1.00
           12    716      83.61 0.004     121.95    0.150     79.00        1.685 0.95 1.00
           12    717     737.79 0.036      91.46    0.150     69.00        0.848 0.95 1.00
           12    718     181.51 0.015     121.95    0.150     69.00        1.157 0.95 1.00
           12    719   10454.82 0.223      15.24    0.150     69.00        1.389 0.95 1.00
           12    720     108.12 0.006     121.95    0.150     69.00        1.499 0.95 1.00
           13    721   30305.11 0.113      60.98    0.300     59.00        2.652 0.95 1.00
           13    722    1608.40 0.015     121.95    0.300     59.00        1.855 0.95 1.00
           13    723    7248.59 0.036      91.46    0.300     59.00        1.683 0.95 1.00
           13    724     836.97 0.006     121.95    0.300     59.00        2.325 0.95 1.00
           13    725    2987.05 0.015     121.95    0.300     72.00        1.968 0.95 1.00
           13    726   27167.22 0.129      24.39    0.300     72.00        2.194 0.95 1.00
           13    727    8903.22 0.035      91.46    0.300     72.00        1.808 0.95 1.00
           13    728    2224.33 0.006     121.95    0.300     72.00        2.444 0.95 1.00
           13    729      84.88 0.006     121.95    0.100     66.00        1.169 0.95 1.00
           13    730  100977.12 0.383       9.15    0.100     66.00        5.920 0.95 1.00
           13    731     821.84 0.035      91.46    0.100     66.00        0.660 0.95 1.00
           13    732     236.40 0.015     121.95    0.100     66.00        0.908 0.95 1.00
           13    733      89.76 0.015     121.95    0.100     66.00        0.891 0.95 1.00
           13    734   83712.27 0.387       9.15    0.100     66.00        5.034 0.95 1.00
           13    735     575.96 0.037      91.46    0.100     66.00        0.628 0.95 1.00
           13    736      45.63 0.006     121.95    0.100     66.00        1.164 0.95 1.00
           13    737     390.52 0.037      91.46    0.100     77.00        0.609 0.95 1.00
           13    738   91067.09 0.455       9.15    0.100     77.00        5.411 0.95 1.00
           13    739      41.44 0.005     121.95    0.100     77.00        1.228 0.95 1.00
           13    740      63.04 0.015     121.95    0.100     77.00        0.888 0.95 1.00
           13    741    4122.83 0.036      91.46    0.100     97.22        0.925 0.95 1.00
           13    742     836.79 0.015     121.95    0.100     97.22        0.967 0.95 1.00
           13    743   17094.36 0.117      60.98    0.100     97.22        1.550 0.95 1.00
           13    744     350.63 0.006     121.95    0.100     97.22        1.198 0.95 1.00
           13    745    8929.34 0.148      24.39    0.100     97.48        0.869 0.95 1.00
           13    746    2827.69 0.035      91.46    0.100     97.48        0.830 0.95 1.00
           13    747     466.24 0.006     121.95    0.100     97.48        1.210 0.95 1.00
           13    748     786.42 0.015     121.95    0.100     97.48        0.963 0.95 1.00
           13    749   39131.15 0.121      24.39    0.150     69.00        2.780 0.95 1.00
           13    750    8018.74 0.036      91.46    0.150     69.00        1.363 0.95 1.00
           13    751    1472.65 0.015     121.95    0.150     69.00        1.266 0.95 1.00
           13    752     624.10 0.006     121.95    0.150     69.00        1.544 0.95 1.00
           13    753     433.05 0.015     121.95    0.150     79.00        1.171 0.95 1.00
           13    754    1806.51 0.036      91.46    0.150     79.00        0.898 0.95 1.00
           13    755   11189.73 0.160      18.29    0.150     79.00        1.030 0.95 1.00
           13    756     314.71 0.005     121.95    0.150     79.00        1.596 0.95 1.00
           14    757     904.21 0.078      60.98    0.140     78.00        0.505 0.95 1.00
           14    758    1474.35 0.033      91.46    0.140     78.00        0.825 0.95 1.00
           14    759     671.21 0.015     121.95    0.140     78.00        1.131 0.95 1.00
           14    760     371.46 0.007     121.95    0.140     78.00        1.385 0.95 1.00
           14    761    1114.18 0.005     121.95    0.140     89.00        1.582 0.95 1.00
           14    762     562.08 0.014     121.95    0.140     89.00        1.145 0.95 1.00
           14    763     203.67 0.076      60.98    0.140     89.00        0.456 0.95 1.00
           14    764     520.84 0.031      91.46    0.140     89.00        0.772 0.95 1.00
           14    765     538.12 0.006     121.95    0.140     85.00        1.462 0.95 1.00
           14    766     713.01 0.015     121.95    0.140     85.00        1.134 0.95 1.00
           14    767    1430.22 0.033      91.46    0.140     85.00        0.822 0.95 1.00
           14    768     668.53 0.071      60.98    0.140     85.00        0.500 0.95 1.00
           14    769    1114.70 0.034      91.46    0.300     72.00        1.205 0.95 1.00
           14    770     981.33 0.079      60.98    0.300     72.00        0.758 0.95 1.00
           14    771     359.34 0.015     121.95    0.300     72.00        1.731 0.95 1.00
           14    772     186.87 0.006     121.95    0.300     72.00        2.255 0.95 1.00
           14    773     507.41 0.015     121.95    0.300     59.00        1.743 0.95 1.00
           14    774     260.47 0.006     121.95    0.300     59.00        2.261 0.95 1.00
           14    775    2056.40 0.126      24.39    0.300     59.00        0.489 0.95 1.00
           14    776    1169.33 0.033      91.46    0.300     59.00        1.219 0.95 1.00
           14    777      71.81 0.007     121.95    0.300     72.00        2.143 0.95 1.00
           14    778     166.21 0.015     121.95    0.300     72.00        1.715 0.95 1.00
           14    779     521.94 0.034      91.46    0.300     72.00        1.163 0.95 1.00
           14    780     604.15 0.089      60.98    0.300     72.00        0.708 0.95 1.00
           14    781    3660.61 0.015     121.95    0.100     66.00        1.123 0.95 1.00
           14    782   14500.76 0.036      91.46    0.100     66.00        1.384 0.95 1.00
           14    783    2212.39 0.006     121.95    0.100     66.00        1.314 0.95 1.00
           14    784   45884.09 0.102      60.98    0.100     66.00        2.559 0.95 1.00
           14    785    2304.44 0.015     121.95    0.100     77.00        1.042 0.95 1.00
           14    786    1126.30 0.006     121.95    0.100     77.00        1.244 0.95 1.00
           14    787   11230.04 0.036      91.46    0.100     77.00        1.220 0.95 1.00
           14    788   28120.76 0.096      60.98    0.100     77.00        1.787 0.95 1.00
           14    789     833.19 0.006     121.95    0.100     66.00        1.224 0.95 1.00
           14    790    1917.39 0.015     121.95    0.100     66.00        1.018 0.95 1.00
           14    791    8989.18 0.036      91.46    0.100     66.00        1.105 0.95 1.00
           14    792   99230.02 0.173      18.29    0.100     66.00        4.521 0.95 1.00
           14    793     281.92 0.033      91.46    0.010     92.00        0.173 0.95 1.00
           14    794     311.87 0.014     121.95    0.010     92.00        0.254 0.95 1.00
           14    795     382.13 0.136      24.39    0.010     92.00        0.077 0.95 1.00
           14    796   25098.66 0.000     121.95    0.010     92.00        2.310 0.95 1.00
           14    797    2518.23 0.087      60.98    0.100     97.22        0.518 0.95 1.00
           14    798    1700.57 0.035      91.46    0.100     97.22        0.699 0.95 1.00
           14    799     243.77 0.006     121.95    0.100     97.22        1.180 0.95 1.00
           14    800     524.73 0.015     121.95    0.100     97.22        0.924 0.95 1.00
           14    801    2679.86 0.035      91.46    0.100     97.48        0.760 0.95 1.00
           14    802    3513.30 0.085      60.98    0.100     97.48        0.580 0.95 1.00
           14    803     643.74 0.015     121.95    0.100     97.48        0.932 0.95 1.00
           14    804     330.29 0.006     121.95    0.100     97.48        1.187 0.95 1.00
           14    805    1980.14 0.125      24.39    0.100     97.22        0.320 0.95 1.00
           14    806     909.27 0.034      91.46    0.100     97.22        0.651 0.95 1.00
           14    807     120.39 0.006     121.95    0.100     97.22        1.169 0.95 1.00
           14    808     284.29 0.015     121.95    0.100     97.22        0.905 0.95 1.00
           14    809    1124.71 0.036      91.46    0.100     55.00        0.656 0.95 1.00
           14    810    4799.78 0.101      60.98    0.100     55.00        0.637 0.95 1.00
           14    811      80.42 0.006     121.95    0.100     55.00        1.166 0.95 1.00
           14    812     191.17 0.016     121.95    0.100     55.00        0.881 0.95 1.00
           14    813      44.44 0.015     121.95    0.100     55.00        0.884 0.95 1.00
           14    814      19.73 0.006     121.95    0.100     55.00        1.160 0.95 1.00
           14    815     210.17 0.036      91.46    0.100     55.00        0.589 0.95 1.00
           14    816    1557.87 0.144      24.39    0.100     55.00        0.286 0.95 1.00
           14    817      19.45 0.007     121.95    0.100     55.00        1.107 0.95 1.00
           14    818      38.90 0.015     121.95    0.100     55.00        0.884 0.95 1.00
           14    819     213.51 0.036      91.46    0.100     55.00        0.589 0.95 1.00
           14    820    2450.17 0.164      18.29    0.100     55.00        0.309 0.95 1.00
           14    821    7694.60 0.085      60.98    0.150     69.00        0.908 0.95 1.00
           14    822    6053.63 0.035      91.46    0.150     69.00        1.111 0.95 1.00
[...]
           54   3913     311.17        31.000         0.048      0.000   0.020        1.000  0.050    0.000     0.000
           54   3914    1594.43        31.000         0.048      0.000   0.020        1.000  0.050    0.000     0.000
           54   3915    4140.92        31.000         0.048      0.000   0.020        1.000  0.050    0.000     0.000
           54   3916   33386.14        31.000         0.048      0.000   0.020        1.000  0.050    0.000     0.000
           54   3917     424.37        31.000         0.048      0.000   0.020        1.000  0.050    0.000     0.000
           54   3918     871.09        31.000         0.048      0.000   0.020        1.000  0.050    0.000     0.000
           54   3919    2707.99        31.000         0.048      0.000   0.020        1.000  0.050    0.000     0.000
           54   3920     427.47        31.000         0.048      0.000   0.020        1.000  0.050    0.000     0.000
           54   3921     946.93        31.000         0.048      0.000   0.020        1.000  0.050    0.000     0.000
           54   3922    5329.75        31.000         0.048      0.000   0.020        1.000  0.050    0.000     0.000
           54   3923    6765.54        31.000         0.048      0.000   0.020        1.000  0.050    0.000     0.000
           54   3924    2519.56        31.000         0.048      0.000   0.020        1.000  0.050    0.000     0.000
           54   3925    1245.15        31.000         0.048      0.000   0.020        1.000  0.050    0.000     0.000
           54   3926    5894.46        31.000         0.048      0.000   0.020        1.000  0.050    0.000     0.000
           54   3927     551.90        31.000         0.048      0.000   0.020        1.000  0.050    0.000     0.000
           54   3928    1155.19        31.000         0.048      0.000   0.020        1.000  0.050    0.000     0.000
           54   3929    3559.77        31.000         0.048      0.000   0.020        1.000  0.050    0.000     0.000
           54   3930    8158.85        31.000         0.048      0.000   0.020        1.000  0.050    0.000     0.000
           55   3931     570.37        31.000         0.048      0.000   0.020        1.000  0.050    0.000     0.000
           55   3932     158.41        31.000         0.048      0.000   0.020        1.000  0.050    0.000     0.000
           55   3933     871.50        31.000         0.048      0.000   0.020        1.000  0.050    0.000     0.000
           55   3934     647.95        31.000         0.048      0.000   0.020        1.000  0.050    0.000     0.000
           55   3935     436.43        31.000         0.048      0.000   0.020        1.000  0.050    0.000     0.000
           55   3936     230.78        31.000         0.048      0.000   0.020        1.000  0.050    0.000     0.000
           55   3937     341.80        31.000         0.048      0.000   0.020        1.000  0.050    0.000     0.000
           55   3938     464.42        31.000         0.048      0.000   0.020        1.000  0.050    0.000     0.000
           55   3939     644.20        31.000         0.048      0.000   0.020        1.000  0.050    0.000     0.000
           55   3940    1534.15        31.000         0.048      0.000   0.020        1.000  0.050    0.000     0.000
           55   3941    1459.43        31.000         0.048      0.000   0.020        1.000  0.050    0.000     0.000
           55   3942    3169.04        31.000         0.048      0.000   0.020        1.000  0.050    0.000     0.000
           55   3943    2327.41        31.000         0.048      0.000   0.020        1.000  0.050    0.000     0.000
           55   3944    1164.32        31.000         0.048      0.000   0.020        1.000  0.050    0.000     0.000
           55   3945    1522.97        31.000         0.048      0.000   0.020        1.000  0.050    0.000     0.000
           55   3946     347.20        31.000         0.048      0.000   0.020        1.000  0.050    0.000     0.000
           55   3947     598.97        31.000         0.048      0.000   0.020        1.000  0.050    0.000     0.000
           55   3948     882.58        31.000         0.048      0.000   0.020        1.000  0.050    0.000     0.000
           55   3949     966.83        31.000         0.048      0.000   0.020        1.000  0.050    0.000     0.000
           55   3950     670.73        31.000         0.048      0.000   0.020        1.000  0.050    0.000     0.000
           55   3951    5212.37        31.000         0.048      0.000   0.020        1.000  0.050    0.000     0.000
           55   3952    1015.02        31.000         0.048      0.000   0.020        1.000  0.050    0.000     0.000
           55   3953    2351.08        31.000         0.048      0.000   0.020        1.000  0.050    0.000     0.000
           55   3954    2443.60        31.000         0.048      0.000   0.020        1.000  0.050    0.000     0.000
           55   3955     274.97        31.000         0.048      0.000   0.020        1.000  0.050    0.000     0.000
           55   3956     187.43        31.000         0.048      0.000   0.020        1.000  0.050    0.000     0.000
           55   3957     600.61        31.000         0.048      0.000   0.020        1.000  0.050    0.000     0.000
           55   3958     732.91        31.000         0.048      0.000   0.020        1.000  0.050    0.000     0.000
           55   3959    4647.49        31.000         0.048      0.000   0.020        1.000  0.050    0.000     0.000
           55   3960    2470.41        31.000         0.048      0.000   0.020        1.000  0.050    0.000     0.000
           55   3961     746.34        31.000         0.048      0.000   0.020        1.000  0.050    0.000     0.000
           55   3962    1864.82        31.000         0.048      0.000   0.020        1.000  0.050    0.000     0.000
           55   3963     200.67        31.000         0.048      0.000   0.020        1.000  0.050    0.000     0.000
           55   3964    4350.83        31.000         0.048      0.000   0.020        1.000  0.050    0.000     0.000
           55   3965     254.02        31.000         0.048      0.000   0.020        1.000  0.050    0.000     0.000
           55   3966    1106.55        31.000         0.048      0.000   0.020        1.000  0.050    0.000     0.000
           55   3967    8082.77        31.000         0.048      0.000   0.020        1.000  0.050    0.000     0.000
           55   3968    5913.67        31.000         0.048      0.000   0.020        1.000  0.050    0.000     0.000
           55   3969    1685.52        31.000         0.048      0.000   0.020        1.000  0.050    0.000     0.000
           55   3970     703.42        31.000         0.048      0.000   0.020        1.000  0.050    0.000     0.000
           55   3971   56678.48        31.000         0.048      0.000   0.020        1.000  0.050    0.000     0.000
           55   3972    1439.29        31.000         0.048      0.000   0.020        1.000  0.050    0.000     0.000
           55   3973    5889.02        31.000         0.048      0.000   0.020        1.000  0.050    0.000     0.000
           55   3974    1525.51        31.000         0.048      0.000   0.020        1.000  0.050    0.000     0.000
           55   3975   24624.44        31.000         0.048      0.000   0.020        1.000  0.050    0.000     0.000
           55   3976    2921.17        31.000         0.048      0.000   0.020        1.000  0.050    0.000     0.000
           55   3977    6855.10        31.000         0.048      0.000   0.020        1.000  0.050    0.000     0.000
           55   3978   48792.91        31.000         0.048      0.000   0.020        1.000  0.050    0.000     0.000
           55   3979   45771.00        31.000         0.048      0.000   0.020        1.000  0.050    0.000     0.000
           55   3980     396.28        31.000         0.048      0.000   0.020        1.000  0.050    0.000     0.000
           55   3981     508.71        31.000         0.048      0.000   0.020        1.000  0.050    0.000     0.000
           55   3982    1469.01        31.000         0.048      0.000   0.020        1.000  0.050    0.000     0.000
           55   3983   26593.80        31.000         0.048      0.000   0.020        1.000  0.050    0.000     0.000
           55   3984     258.82        31.000         0.048      0.000   0.020        1.000  0.050    0.000     0.000
           55   3985     649.60        31.000         0.048      0.000   0.020        1.000  0.050    0.000     0.000
           55   3986     474.71        31.000         0.048      0.000   0.020        1.000  0.050    0.000     0.000
           55   3987    1108.19        31.000         0.048      0.000   0.020        1.000  0.050    0.000     0.000
           55   3988     537.78        31.000         0.048      0.000   0.020        1.000  0.050    0.000     0.000
           55   3989     510.87        31.000         0.048      0.000   0.020        1.000  0.050    0.000     0.000
           55   3990     845.58        31.000         0.048      0.000   0.020        1.000  0.050    0.000     0.000
           55   3991     261.87        31.000         0.048      0.000   0.020        1.000  0.050    0.000     0.000
           55   3992    1103.59        31.000         0.048      0.000   0.020        1.000  0.050    0.000     0.000
           55   3993     378.15        31.000         0.048      0.000   0.020        1.000  0.050    0.000     0.000
           55   3994    1695.57        31.000         0.048      0.000   0.020        1.000  0.050    0.000     0.000
           55   3995    7417.21        31.000         0.048      0.000   0.020        1.000  0.050    0.000     0.000
           55   3996    2942.91        31.000         0.048      0.000   0.020        1.000  0.050    0.000     0.000
           55   3997    4574.70        31.000         0.048      0.000   0.020        1.000  0.050    0.000     0.000
           55   3998    1341.70        31.000         0.048      0.000   0.020        1.000  0.050    0.000     0.000
           55   3999    1280.97        31.000         0.048      0.000   0.020        1.000  0.050    0.000     0.000
           55   4000     409.14        31.000         0.048      0.000   0.020        1.000  0.050    0.000     0.000
           55   4001     599.63        31.000         0.048      0.000   0.020        1.000  0.050    0.000     0.000
           55   4002     345.60        31.000         0.048      0.000   0.020        1.000  0.050    0.000     0.000
           55   4003     287.04        31.000         0.048      0.000   0.020        1.000  0.050    0.000     0.000
           55   4004     205.46        31.000         0.048      0.000   0.020        1.000  0.050    0.000     0.000
           55   4005    1081.19        31.000         0.048      0.000   0.020        1.000  0.050    0.000     0.000
           55   4006    3197.92        31.000         0.048      0.000   0.020        1.000  0.050    0.000     0.000
           55   4007    3677.42        31.000         0.048      0.000   0.020        1.000  0.050    0.000     0.000
           55   4008    2554.76        31.000         0.048      0.000   0.020        1.000  0.050    0.000     0.000
           55   4009     713.00        31.000         0.048      0.000   0.020        1.000  0.050    0.000     0.000
           55   4010     288.87        31.000         0.048      0.000   0.020        1.000  0.050    0.000     0.000
           55   4011    3199.99        31.000         0.048      0.000   0.020        1.000  0.050    0.000     0.000
           55   4012    1133.13        31.000         0.048      0.000   0.020        1.000  0.050    0.000     0.000
           55   4013     236.32        31.000         0.048      0.000   0.020        1.000  0.050    0.000     0.000
           55   4014     277.41        31.000         0.048      0.000   0.020        1.000  0.050    0.000     0.000
           55   4015    3557.47        31.000         0.048      0.000   0.020        1.000  0.050    0.000     0.000
           55   4016    4830.04        31.000         0.048      0.000   0.020        1.000  0.050    0.000     0.000
           55   4017     987.83        31.000         0.048      0.000   0.020        1.000  0.050    0.000     0.000
           55   4018     379.98        31.000         0.048      0.000   0.020        1.000  0.050    0.000     0.000
           55   4019    8607.68        31.000         0.048      0.000   0.020        1.000  0.050    0.000     0.000
           55   4020    1725.95        31.000         0.048      0.000   0.020        1.000  0.050    0.000     0.000
           55   4021    2214.84        31.000         0.048      0.000   0.020        1.000  0.050    0.000     0.000
           55   4022    7219.72        31.000         0.048      0.000   0.020        1.000  0.050    0.000     0.000
           55   4023   34961.21        31.000         0.048      0.000   0.020        1.000  0.050    0.000     0.000
           55   4024   49311.57        31.000         0.048      0.000   0.020        1.000  0.050    0.000     0.000
           55   4025   17916.29        31.000         0.048      0.000   0.020        1.000  0.050    0.000     0.000
           55   4026    7139.70        31.000         0.048      0.000   0.020        1.000  0.050    0.000     0.000

         Tributary/Main Channel Characteristics
              |--------------Tributary--------------------|---------------------Main---------------------------|
          Sub  Length(km) Slope Width(m) Cond(mm/hr)     N Length(km) Slope Width(m) Depth(m) Cond(mm/hr)     N
            1      122.27 0.005   115.24      0.0000 0.014      24.63 0.000   115.24     2.60      0.0000 0.014
            2      227.73 0.003   119.00      0.0000 0.014     104.74 0.001   119.00     2.65      0.0000 0.014
            3      122.14 0.001   115.99      0.0000 0.014      30.97 0.001  1336.83    13.31      0.0000 0.014
            4       41.73 0.009    45.33      0.0000 0.014      13.89 0.001   221.44     4.01      0.0000 0.014
            5       25.50 0.010    27.37      0.0000 0.014      14.11 0.001   211.86     3.90      0.0000 0.014
            6       66.15 0.003    67.28      0.0000 0.014      46.33 0.003   207.63     3.85      0.0000 0.014
            7      100.63 0.001    92.81      0.0000 0.014      77.12 0.000  1323.15    13.22      0.0000 0.014
            8       75.51 0.016    91.31      0.0000 0.014      12.07 0.000    91.31     2.22      0.0000 0.014
            9       88.82 0.016    83.24      0.0000 0.014      54.69 0.003   132.38     2.85      0.0000 0.014
           10      311.48 0.003   139.56      0.0000 0.014     195.81 0.000   139.56     2.95      0.0000 0.014
           11      135.20 0.003   111.40      0.0000 0.014     131.23 0.001   301.60     4.93      0.0000 0.014
           12      417.55 0.002   215.98      0.0000 0.014      12.48 0.005   273.58     4.62      0.0000 0.014
           13      313.34 0.004   202.25      0.0000 0.014     198.30 0.002   202.25     3.78      0.0000 0.014
           14      107.12 0.001   170.89      0.0000 0.014      71.09 0.000  1313.66    13.16      0.0000 0.014
           15       66.65 0.002    57.30      0.0000 0.014      51.38 0.001   357.31     5.52      0.0000 0.014
           16       89.81 0.002    76.79      0.0000 0.014      85.87 0.000   319.74     5.13      0.0000 0.014
           17        5.12 0.012     4.20      0.0000 0.014       1.21 0.000   534.89     7.23      0.0000 0.014
           18      111.94 0.014   103.78      0.0000 0.014      53.85 0.000   383.96     5.80      0.0000 0.014
           19      101.68 0.002    87.09      0.0000 0.014      82.86 0.000   297.26     4.89      0.0000 0.014
           20       19.07 0.006    21.62      0.0000 0.014      13.26 0.000   299.52     4.91      0.0000 0.014
           21      139.11 0.003   132.12      0.0000 0.014      52.89 0.001   132.12     2.85      0.0000 0.014
           22       69.19 0.004    48.43      0.0000 0.014      18.85 0.000   351.16     5.46      0.0000 0.014
           23      155.89 0.010   115.38      0.0000 0.014      69.74 0.005   115.38     2.60      0.0000 0.014
           24      146.38 0.011   110.91      0.0000 0.014      70.49 0.000   557.87     7.43      0.0000 0.014
           25       64.35 0.002    50.20      0.0000 0.014      30.67 0.000   305.36     4.97      0.0000 0.014
           26      115.15 0.010    91.26      0.0000 0.014      25.81 0.000   257.10     4.44      0.0000 0.014
           27      274.80 0.005   210.31      0.0000 0.014     166.89 0.002   210.31     3.88      0.0000 0.014
           28        2.89 0.027   118.08      0.0000 0.014      81.94 0.000   797.07     9.43      0.0000 0.014
           29      218.83 0.001   174.55      0.0000 0.014     178.91 0.000   253.09     4.39      0.0000 0.014
           30      122.31 0.011   119.68      0.0000 0.014      35.34 0.001   119.68     2.66      0.0000 0.014
           31      144.18 0.006   129.49      0.0000 0.014      26.40 0.000   188.93     3.61      0.0000 0.014
           32      114.15 0.012   104.66      0.0000 0.014      64.81 0.004   228.57     4.10      0.0000 0.014
           33      165.25 0.001   124.41      0.0000 0.014     158.75 0.000   159.16     3.22      0.0000 0.014
           34       84.47 0.002    82.83      0.0000 0.014       2.69 0.001    82.83     2.09      0.0000 0.014
           35       73.51 0.002    81.81      0.0000 0.014      25.09 0.000   261.11     4.48      0.0000 0.014
           36      174.03 0.001   203.23      0.0000 0.014     127.82 0.000  1215.60    12.49      0.0000 0.014
           37      110.15 0.007   116.09      0.0000 0.014      67.59 0.003   237.76     4.21      0.0000 0.014
           38      208.90 0.001   122.89      0.0000 0.014     119.66 0.001   122.89     2.71      0.0000 0.014
           39      119.52 0.008   141.26      0.0000 0.014      40.32 0.002   141.26     2.97      0.0000 0.014
           40       29.22 0.007    22.35      0.0000 0.014      19.61 0.002   110.14     2.52      0.0000 0.014
           41       86.16 0.004    98.92      0.0000 0.014      14.58 0.000    98.92     2.35      0.0000 0.014
           42      130.91 0.001   125.19      0.0000 0.014      89.73 0.000   889.83    10.15      0.0000 0.014
           43      114.09 0.004   105.05      0.0000 0.014       5.24 0.000   904.91    10.26      0.0000 0.014
           44      144.99 0.006   105.44      0.0000 0.014      41.71 0.004   105.44     2.45      0.0000 0.014
           45      167.69 0.004   104.83      0.0000 0.014      34.49 0.000   104.83     2.44      0.0000 0.014
           46       49.74 0.009    52.12      0.0000 0.014      10.19 0.000   936.40    10.50      0.0000 0.014
           47      135.81 0.002    92.97      0.0000 0.014      69.35 0.000   917.10    10.35      0.0000 0.014
           48      152.18 0.003   121.15      0.0000 0.014     141.57 0.001   167.35     3.33      0.0000 0.014
           49       56.86 0.001    71.85      0.0000 0.014      26.82 0.000  1178.21    12.24      0.0000 0.014
           50      137.58 0.001   160.76      0.0000 0.014      82.64 0.000  1171.52    12.19      0.0000 0.014
           51      115.39 0.001   156.55      0.0000 0.014      23.94 0.001  1125.08    11.87      0.0000 0.014
           52      185.77 0.001   140.72      0.0000 0.014      70.69 0.000   234.06     4.17      0.0000 0.014
           53      234.47 0.002   272.62      0.0000 0.014     112.33 0.000  1099.67    11.69      0.0000 0.014
           54      206.08 0.001   139.11      0.0000 0.014      34.68 0.000   139.11     2.94      0.0000 0.014
           55      145.71 0.003   205.90      0.0000 0.014     112.92 0.000   980.71    10.83      0.0000 0.014
